tests/data/state_estimation/dummy-test-line-into-itself/asym_output_batch.json
{
  "version": "1.0",
  "type": "asym_output",
  "is_batch": true,
  "attributes": {},
  "data": [
    {
      "node": [
        {"id": 1, "energized": 1, "u_pu": [1.0392774570258345, 1.0392753926115574, 1.039280516213964], "u": [6000.271195765753, 6000.2592768643672, 6000.288857996653], "u_angle": [-8.7552994924244161e-07, -2.0943993622143786, 2.0943958036101828], "p": [543028.42679627438, 429031.11216880631, 654509.52867462754], "q": [-1337294.1582814702, -1334660.1942954548, -1330646.8308444982]},
        {"id": 2, "energized": 1, "u_pu": [1.0382532336340415, 1.0381574767354447, 1.0371723762093359], "u": [5994.357839256133, 5993.8049865443163, 5988.1175060050391], "u_angle": [-0.0043017283819029315, -2.0983088602686522, 2.0892273082796473], "p": [-491768.12791169016, -381801.04203207413, -601191.17461471225], "q": [-245633.63481396431, -245623.65101872, -245359.81056806355]}
      ],
      "line": [
        {"id": 3, "energized": 1, "p_from": [520406.51188683143, 406410.15743665153, 631887.81925079797], "q_from": [-1111078.7321359988, -1108445.778275369, -1104430.8823555829], "i_from": [204.47648718005817, 196.75851000820924, 212.05960308948474], "s_from": [1226914.3762378681, 1180602.0749787679, 1272418.8736490279], "p_to": [-514292.17979348492, -404499.13085950346, -623648.70517760678], "q_to": [-19978.334337182736, -19884.608474989855, -19957.452417889122], "i_to": [85.860752598814486, 67.567694735886462, 104.20102030064804], "s_to": [514680.0754251348, 404987.5856372604, 623967.9538058968]},
        {"id": 4, "energized": 0, "p_from": [0, 0, 0], "q_from": [0, 0, 0], "i_from": [0, 0, 0], "s_from": [0, 0, 0], "p_to": [0, 0, 0], "q_to": [0, 0, 0], "i_to": [0, 0, 0], "s_to": [0, 0, 0]},
        {"id": 5, "energized": 0, "p_from": [0, 0, 0], "q_from": [0, 0, 0], "i_from": [0, 0, 0], "s_from": [0, 0, 0], "p_to": [0, 0, 0], "q_to": [0, 0, 0], "i_to": [0, 0, 0], "s_to": [0, 0, 0]}
      ],
      "shunt": [
        {"id": 6, "energized": 1, "p": [22621.914909445972, 22620.954732167782, 22621.709423852149], "q": [-226215.42614547809, -226214.41602008211, -226215.94848891164], "i": [37.888908561258219, 37.888800389404835, 37.888880246227529], "s": [227343.72667912013, 227342.62602578857, 227344.22598340851], "pf": [0.099505340393118619, 0.099501598655774209, 0.099504218002453571]},
        {"id": 7, "energized": 1, "p": [22524.051881789484, 22698.088827441472, 22457.530562882926], "q": [-225655.30047676258, -225739.04254374828, -225402.35815018375], "i": [37.83168321093715, 37.85196899571357, 37.827973758583767], "s": [226776.64682773568, 226877.3205170288, 226518.35188047463], "pf": [0.099322625132998055, 0.10004564923331689, 0.099142212436425181]}
      ],
      "source": [
        {"id": 8, "energized": 1, "p": [543028.42679627438, 429031.11216880631, 654509.52867462754], "q": [-1337294.1582814702, -1334660.1942954548, -1330646.8308444982], "i": [240.54609337098211, 233.64358426109305, 247.13873710387304], "s": [1443341.7953078831, 1401922.083942465, 1482903.8106237338], "pf": [0.37622996061057012, 0.30603063970737321, 0.44137018462399802]}
      ],
      "sym_load": [
        {"id": 9, "energized": 1, "p": [219946.66264729798, 219946.74840370208, 219946.73929539812], "q": [109973.05337787555, 109973.06319064986, 109972.99790906026], "i": [41.023196620056787, 41.026994020347132, 41.065954994038798], "s": [245907.72025078305, 245907.80134208041, 245907.76400061874], "pf": [0.89442764311340328, 0.89442769689822033, 0.89442779567888997]}
      ],
      "asym_load": [
        {"id": 10, "energized": 1, "p": [271821.4652643922, 161854.29362837211, 381244.43531931413], "q": [135660.58143608875, 135650.58782807016, 135386.81265900331], "i": [50.679965487593577, 35.233401144965967, 67.562139314381128], "s": [303793.84841378673, 211182.13547561326, 404570.02917159692], "pf": [0.89475631808763256, 0.76642038524637701, 0.94234473102210614]}
      ],
      "sym_power_sensor": [
        {"id": 12, "energized": 1, "p_residual": [-57.522678527581007, -57.60843493167004, -57.599326627707129], "q_residual": [-28.483393490337978, -28.49320626465331, -28.427924675056282]}
      ],
      "asym_power_sensor": [
        {"id": 13, "energized": 1, "p_residual": [-51770.4106748376, -51847.591438489362, -51839.393964931936], "q_residual": [-25635.054141311452, -25643.885638187403, -25585.132207542603]},
        {"id": 15, "energized": 0, "p_residual": [0, 0, 0], "q_residual": [0, 0, 0]},
        {"id": 16, "energized": 0, "p_residual": [0, 0, 0], "q_residual": [0, 0, 0]},
        {"id": 17, "energized": 1, "p_residual": [-20313.914909445972, -20314.954732167782, -20311.709423852149], "q_residual": [203125.42614547806, 203124.41602008208, 203125.94848891161]},
        {"id": 18, "energized": 1, "p_residual": [-20220.051881789484, -20388.088827441472, -20161.530562882926], "q_residual": [202615.30047676261, 202699.04254374828, 202402.35815018378]}
      ],
      "asym_voltage_sensor": [
        {"id": 11, "energized": 1, "u_residual": [61.921998446203276, 61.934057956168168, 61.904051592784221], "u_angle_residual": [-6.0767855306912206e-07, 3.0867399622991343e-06, -2.4826691844559434e-06]}
      ]
    },
    {
      "node": [
        {"id": 1, "energized": 1, "u_pu": [1.0392774570258345, 1.0392753926115574, 1.039280516213964], "u": [6000.271195765753, 6000.2592768643672, 6000.288857996653], "u_angle": [-8.7552994924244161e-07, -2.0943993622143786, 2.0943958036101828], "p": [543028.42679627438, 429031.11216880631, 654509.52867462754], "q": [-1337294.1582814702, -1334660.1942954548, -1330646.8308444982]},
        {"id": 2, "energized": 1, "u_pu": [1.0382532336340415, 1.0381574767354447, 1.0371723762093359], "u": [5994.357839256133, 5993.8049865443163, 5988.1175060050391], "u_angle": [-0.0043017283819029315, -2.0983088602686522, 2.0892273082796473], "p": [-491768.12791169016, -381801.04203207413, -601191.17461471225], "q": [-245633.63481396431, -245623.65101872, -245359.81056806355]}
      ],
      "line": [
        {"id": 3, "energized": 1, "p_from": [520406.51188683143, 406410.15743665153, 631887.81925079797], "q_from": [-1111078.7321359988, -1108445.778275369, -1104430.8823555829], "i_from": [204.47648718005817, 196.75851000820924, 212.05960308948474], "s_from": [1226914.3762378681, 1180602.0749787679, 1272418.8736490279], "p_to": [-514292.17979348492, -404499.13085950346, -623648.70517760678], "q_to": [-19978.334337182736, -19884.608474989855, -19957.452417889122], "i_to": [85.860752598814486, 67.567694735886462, 104.20102030064804], "s_to": [514680.0754251348, 404987.5856372604, 623967.9538058968]},
        {"id": 4, "energized": 1, "p_from": [11310.957454722986, 11310.477366083891, 11310.854711926075], "q_from": [-113107.71307273905, -113107.20801004105, -113107.97424445582], "i_from": [18.94445428062911, 18.944400194702418, 18.944440123113765], "s_from": [113671.86333956006, 113671.31301289429, 113672.11299170426], "p_to": [11310.957454722986, 11310.477366083891, 11310.854711926075], "q_to": [-113107.71307273905, -113107.20801004105, -113107.97424445582], "i_to": [18.94445428062911, 18.944400194702418, 18.944440123113765], "s_to": [113671.86333956006, 113671.31301289429, 113672.11299170426]},
        {"id": 5, "energized": 1, "p_from": [11262.025940894742, 11349.044413720736, 11228.765281441463], "q_from": [-112827.65023838129, -112869.52127187414, -112701.17907509187], "i_from": [18.915841605468575, 18.925984497856785, 18.913986879291883], "s_from": [113388.32341386784, 113438.6602585144, 113259.17594023731], "p_to": [11262.025940894742, 11349.044413720736, 11228.765281441463], "q_to": [-112827.65023838129, -112869.52127187414, -112701.17907509187], "i_to": [18.915841605468575, 18.925984497856785, 18.913986879291883], "s_to": [113388.32341386784, 113438.6602585144, 113259.17594023731]}
      ],
      "shunt": [
        {"id": 6, "energized": 0, "p": [0, 0, 0], "q": [0, 0, 0], "i": [0, 0, 0], "s": [0, 0, 0], "pf": [0, 0, 0]},
        {"id": 7, "energized": 0, "p": [0, 0, 0], "q": [0, 0, 0], "i": [0, 0, 0], "s": [0, 0, 0], "pf": [0, 0, 0]}
      ],
      "source": [
        {"id": 8, "energized": 1, "p": [543028.42679627438, 429031.11216880631, 654509.52867462754], "q": [-1337294.1582814702, -1334660.1942954548, -1330646.8308444982], "i": [240.54609337098211, 233.64358426109305, 247.13873710387304], "s": [1443341.7953078831, 1401922.083942465, 1482903.8106237338], "pf": [0.37622996061057012, 0.30603063970737321, 0.44137018462399802]}
      ],
      "sym_load": [
        {"id": 9, "energized": 1, "p": [219946.66264729798, 219946.74840370208, 219946.73929539812], "q": [109973.05337787555, 109973.06319064986, 109972.99790906026], "i": [41.023196620056787, 41.026994020347132, 41.065954994038798], "s": [245907.72025078305, 245907.80134208041, 245907.76400061874], "pf": [0.89442764311340328, 0.89442769689822033, 0.89442779567888997]}
      ],
      "asym_load": [
        {"id": 10, "energized": 1, "p": [271821.4652643922, 161854.29362837211, 381244.43531931413], "q": [135660.58143608875, 135650.58782807016, 135386.81265900331], "i": [50.679965487593577, 35.233401144965967, 67.562139314381128], "s": [303793.84841378673, 211182.13547561326, 404570.02917159692], "pf": [0.89475631808763256, 0.76642038524637701, 0.94234473102210614]}
      ],
      "sym_power_sensor": [
        {"id": 12, "energized": 1, "p_residual": [-57.522678527581007, -57.60843493167004, -57.599326627707129], "q_residual": [-28.483393490337978, -28.49320626465331, -28.427924675056282]}
      ],
      "asym_power_sensor": [
        {"id": 13, "energized": 1, "p_residual": [-51770.4106748376, -51847.591438489362, -51839.393964931936], "q_residual": [-25635.054141311452, -25643.885638187403, -25585.132207542603]},
        {"id": 15, "energized": 1, "p_residual": [-10156.957454722986, -10157.477366083891, -10155.854711926075], "q_residual": [101562.71307273903, 101562.20801004104, 101562.97424445581]},
        {"id": 16, "energized": 1, "p_residual": [-10110.025940894742, -10194.044413720736, -10080.765281441463], "q_residual": [101307.65023838131, 101349.52127187414, 101201.17907509189]},
        {"id": 17, "energized": 0, "p_residual": [0, 0, 0], "q_residual": [0, 0, 0]},
        {"id": 18, "energized": 0, "p_residual": [0, 0, 0], "q_residual": [0, 0, 0]}
      ],
      "asym_voltage_sensor": [
        {"id": 11, "energized": 1, "u_residual": [61.921998446203276, 61.934057956168168, 61.904051592784221], "u_angle_residual": [-6.0767855306912206e-07, 3.0867399622991343e-06, -2.4826691844559434e-06]}
      ]
    }
  ]
}
