tests/data/state_estimation/dummy-test-line-into-itself/sym_output_batch.json
{
  "version": "1.0",
  "type": "sym_output",
  "is_batch": true,
  "attributes": {},
  "data": [
    {
      "node": [
        {"id": 1, "energized": 1, "u_pu": 1.0392777855178259, "u": 10392.777855178259, "u_angle": -1.4792472996321503e-06, "p": 1626465.0784921984, "q": -4002741.1330762231},
        {"id": 2, "energized": 1, "u_pu": 1.0378612171329533, "u": 10378.612171329532, "u_angle": -0.0044610273163856263, "p": -1474760.431572943, "q": -736617.10054503276}
      ],
      "line": [
        {"id": 3, "energized": 1, "p_from": 1558600.4998314625, "q_from": -3324095.3464686256, "i_from": 203.95486734887882, "s_from": 3671354.7078005495, "p_to": -1542440.1331959341, "q_to": -59820.084314923566, "i_to": 85.868677100670197, "s_to": 1543599.6912998317},
        {"id": 4, "energized": 0, "p_from": 0, "q_from": 0, "i_from": 0, "s_from": 0, "p_to": 0, "q_to": 0, "i_to": 0, "s_to": 0},
        {"id": 5, "energized": 0, "p_from": 0, "q_from": 0, "i_from": 0, "s_from": 0, "p_to": 0, "q_to": 0, "i_to": 0, "s_to": 0}
      ],
      "shunt": [
        {"id": 6, "energized": 1, "p": 67864.57866075779, "q": -678645.78660757805, "i": 37.888862952693579, "s": 682030.57462039089, "pf": 0.099503719020998888},
        {"id": 7, "energized": 1, "p": 67679.701623012123, "q": -676797.01623012125, "i": 37.837219238043396, "s": 680172.58338584553, "pf": 0.099503719020998901}
      ],
      "source": [
        {"id": 8, "energized": 1, "p": 1626465.0784921984, "q": -4002741.1330762231, "i": 240.02074270549568, "s": 4320570.0121598495, "pf": 0.37644687481389283}
      ],
      "sym_load": [
        {"id": 9, "energized": 1, "p": 659840.15044297359, "q": 329919.11448218534, "i": 41.038698676158802, "s": 737723.28568191163, "pf": 0.89442771192053794}
      ],
      "asym_load": [
        {"id": 10, "energized": 1, "p": 814920.28112996952, "q": 406697.98606284749, "i": 50.664976271908074, "s": 910767.98168607382, "pf": 0.89476167093767978}
      ],
      "sym_power_sensor": [
        {"id": 12, "energized": 1, "p_residual": -172.73053666233551, "q_residual": -85.404529029720067}
      ],
      "asym_power_sensor": [
        {"id": 13, "energized": 1, "p_residual": -155457.48299614995, "q_residual": -76864.076126726693},
        {"id": 15, "energized": 0, "p_residual": 0, "q_residual": 0},
        {"id": 16, "energized": 0, "p_residual": 0, "q_residual": 0},
        {"id": 17, "energized": 1, "p_residual": -60940.578660757783, "q_residual": 609375.78660757793},
        {"id": 18, "energized": 1, "p_residual": -60769.701623012123, "q_residual": 607717.01623012125}
      ],
      "asym_voltage_sensor": [
        {"id": 11, "energized": 1, "u_residual": 107.24867934830185, "u_angle_residual": -7.0091976385293353e-20}
      ]
    },
    {
      "node": [
        {"id": 1, "energized": 1, "u_pu": 1.0392777855178259, "u": 10392.777855178259, "u_angle": -1.4792472996321503e-06, "p": 1626465.0784921984, "q": -4002741.1330762231},
        {"id": 2, "energized": 1, "u_pu": 1.0378612171329533, "u": 10378.612171329532, "u_angle": -0.0044610273163856263, "p": -1474760.431572943, "q": -736617.10054503276}
      ],
      "line": [
        {"id": 3, "energized": 1, "p_from": 1558600.4998314625, "q_from": -3324095.3464686256, "i_from": 203.95486734887882, "s_from": 3671354.7078005495, "p_to": -1542440.1331959341, "q_to": -59820.084314923566, "i_to": 85.868677100670197, "s_to": 1543599.6912998317},
        {"id": 4, "energized": 1, "p_from": 33932.289330378895, "q_from": -339322.89330378902, "i_from": 18.944431476346789, "s_from": 341015.28731019545, "p_to": 33932.289330378895, "q_to": -339322.89330378902, "i_to": 18.944431476346789, "s_to": 341015.28731019545},
        {"id": 5, "energized": 1, "p_from": 33839.850811506061, "q_from": -338398.50811506063, "i_from": 18.918609619021698, "s_from": 340086.29169292276, "p_to": 33839.850811506061, "q_to": -338398.50811506063, "i_to": 18.918609619021698, "s_to": 340086.29169292276}
      ],
      "shunt": [
        {"id": 6, "energized": 0, "p": 0, "q": 0, "i": 0, "s": 0, "pf": 0},
        {"id": 7, "energized": 0, "p": 0, "q": 0, "i": 0, "s": 0, "pf": 0}
      ],
      "source": [
        {"id": 8, "energized": 1, "p": 1626465.0784921984, "q": -4002741.1330762231, "i": 240.02074270549568, "s": 4320570.0121598495, "pf": 0.37644687481389283}
      ],
      "sym_load": [
        {"id": 9, "energized": 1, "p": 659840.15044297359, "q": 329919.11448218534, "i": 41.038698676158802, "s": 737723.28568191163, "pf": 0.89442771192053794}
      ],
      "asym_load": [
        {"id": 10, "energized": 1, "p": 814920.28112996952, "q": 406697.98606284749, "i": 50.664976271908074, "s": 910767.98168607382, "pf": 0.89476167093767978}
      ],
      "sym_power_sensor": [
        {"id": 12, "energized": 1, "p_residual": -172.73053666233551, "q_residual": -85.404529029720067}
      ],
      "asym_power_sensor": [
        {"id": 13, "energized": 1, "p_residual": -155457.48299614995, "q_residual": -76864.076126726693},
        {"id": 15, "energized": 1, "p_residual": -30470.289330378891, "q_residual": 304687.89330378897},
        {"id": 16, "energized": 1, "p_residual": -30384.850811506061, "q_residual": 303858.50811506063},
        {"id": 17, "energized": 0, "p_residual": 0, "q_residual": 0},
        {"id": 18, "energized": 0, "p_residual": 0, "q_residual": 0}
      ],
      "asym_voltage_sensor": [
        {"id": 11, "energized": 1, "u_residual": 107.24867934830185, "u_angle_residual": -7.0091976385293353e-20}
      ]
    }
  ]
}